http://127.0.0.1:5500/agrvaisera.mol
__Jmol-14_07142200233D 1   1.00000     0.00000     0
Jmol version 14.32.62  2022-06-29 19:54 EXTRACT: ({0:7})
  8  7  0  0  0  0            999 V2000
    1.4855   -0.8682   -0.4715 F   0  0  0  0  0  0
    0.3217    0.6449   -0.4961 Xe  0  0  0  0  0  0
   -0.7917   -0.9220   -0.5020 F   0  0  0  0  0  0
    0.2825    0.6662    1.4266 O   0  5  0  0  0  0
    0.2334    2.5785   -0.4781 F   0  0  0  0  0  0
   -1.5364    1.1932   -0.5078 F   0  0  0  0  0  0
    2.1016    1.3140   -0.5174 F   0  0  0  0  0  0
    0.3167    0.6224   -1.4959 H   0  0  0  0  0  0
  1  2  1  0  0  0
  2  3  1  0  0  0
  2  4  1  0  0  0
  2  5  1  0  0  0
  2  6  1  0  0  0
  2  7  1  0  0  0
  8  2  1  0  0  0
M  END
